<?xml version="1.0" encoding="UTF-8"?>

<!-- generated on 2021-08-13 13:01:48 by Eclipse SUMO netedit Version 1.9.2
<configuration xmlns:xsi="http://www.w3.org/2001/XMLSchema-instance" xsi:noNamespaceSchemaLocation="http://sumo.dlr.de/xsd/netconvertConfiguration.xsd">

    <input>
        <sumo-net-file value="/home/elivelton/UFBA/simulator/docker-veins-v4/data/ev_sbesc/ev_sbesc/examples/ev_sbesc/default.net.xml"/>
    </input>

    <output>
        <output-file value="/home/elivelton/UFBA/simulator/docker-veins-v4/data/ev_sbesc/ev_sbesc/examples/ev_sbesc/default.net.xml"/>
    </output>

    <processing>
        <geometry.min-radius.fix.railways value="false"/>
        <geometry.max-grade.fix value="false"/>
        <offset.disable-normalization value="true"/>
        <lefthand value="false"/>
    </processing>

    <junctions>
        <no-turnarounds value="true"/>
        <junctions.corner-detail value="5"/>
        <junctions.limit-turn-speed value="5.5"/>
        <rectangular-lane-cut value="false"/>
    </junctions>

    <pedestrian>
        <walkingareas value="false"/>
    </pedestrian>

    <netedit>
        <additional-files value="/home/elivelton/UFBA/simulator/docker-veins-v4/data/ev_sbesc/ev_sbesc/examples/ev_sbesc/default.poly.xml"/>
    </netedit>

    <report>
        <aggregate-warnings value="5"/>
    </report>

</configuration>
-->

<net version="1.9" junctionCornerDetail="5" limitTurnSpeed="5.50" xmlns:xsi="http://www.w3.org/2001/XMLSchema-instance" xsi:noNamespaceSchemaLocation="http://sumo.dlr.de/xsd/net_file.xsd">

    <location netOffset="-287694.08,2534869.35" convBoundary="661.14,166.81,1427.37,903.08" origBoundary="-47.069917,-22.908413,-47.054202,-22.894444" projParameter="+proj=utm +zone=23 +ellps=WGS84 +datum=WGS84 +units=m +no_defs"/>

    <type id="highway.bridleway" priority="1" numLanes="1" speed="2.78" allow="pedestrian" oneway="1" width="2.00"/>
    <type id="highway.bus_guideway" priority="1" numLanes="1" speed="13.89" allow="bus" oneway="1"/>
    <type id="highway.cycleway" priority="1" numLanes="1" speed="8.33" allow="bicycle" oneway="1" width="1.00"/>
    <type id="highway.footway" priority="1" numLanes="1" speed="2.78" allow="pedestrian" oneway="1" width="2.00"/>
    <type id="highway.ford" priority="1" numLanes="1" speed="2.78" allow="army" oneway="1"/>
    <type id="highway.living_street" priority="2" numLanes="1" speed="2.78" disallow="tram rail_urban rail rail_electric rail_fast ship" oneway="1"/>
    <type id="highway.motorway" priority="14" numLanes="2" speed="27.78" allow="private emergency authority army vip passenger hov taxi bus coach delivery truck trailer motorcycle evehicle custom1 custom2" oneway="1"/>
    <type id="highway.motorway_link" priority="9" numLanes="1" speed="16.67" allow="private emergency authority army vip passenger hov taxi bus coach delivery truck trailer motorcycle evehicle custom1 custom2" oneway="1"/>
    <type id="highway.path" priority="1" numLanes="1" speed="2.78" allow="pedestrian bicycle" oneway="1" width="2.00"/>
    <type id="highway.pedestrian" priority="1" numLanes="1" speed="2.78" allow="pedestrian" oneway="1" width="2.00"/>
    <type id="highway.primary" priority="12" numLanes="2" speed="13.89" disallow="tram rail_urban rail rail_electric rail_fast ship" oneway="1"/>
    <type id="highway.primary_link" priority="7" numLanes="1" speed="13.89" disallow="tram rail_urban rail rail_electric rail_fast ship" oneway="1"/>
    <type id="highway.raceway" priority="15" numLanes="2" speed="83.33" allow="vip" oneway="1"/>
    <type id="highway.residential" priority="3" numLanes="1" speed="13.89" disallow="tram rail_urban rail rail_electric rail_fast ship" oneway="1"/>
    <type id="highway.secondary" priority="11" numLanes="1" speed="13.89" disallow="tram rail_urban rail rail_electric rail_fast ship" oneway="1"/>
    <type id="highway.secondary_link" priority="6" numLanes="1" speed="13.89" disallow="tram rail_urban rail rail_electric rail_fast ship" oneway="1"/>
    <type id="highway.service" priority="1" numLanes="1" speed="5.56" allow="pedestrian delivery bicycle" oneway="1"/>
    <type id="highway.stairs" priority="1" numLanes="1" speed="1.39" allow="pedestrian" oneway="1" width="2.00"/>
    <type id="highway.step" priority="1" numLanes="1" speed="1.39" allow="pedestrian" oneway="1" width="2.00"/>
    <type id="highway.steps" priority="1" numLanes="1" speed="1.39" allow="pedestrian" oneway="1" width="2.00"/>
    <type id="highway.tertiary" priority="10" numLanes="1" speed="13.89" disallow="tram rail_urban rail rail_electric rail_fast ship" oneway="1"/>
    <type id="highway.tertiary_link" priority="5" numLanes="1" speed="13.89" disallow="tram rail_urban rail rail_electric rail_fast ship" oneway="1"/>
    <type id="highway.track" priority="1" numLanes="1" speed="5.56" allow="pedestrian motorcycle moped bicycle" oneway="1"/>
    <type id="highway.trunk" priority="13" numLanes="2" speed="13.89" disallow="pedestrian bicycle tram rail_urban rail rail_electric rail_fast ship" oneway="1"/>
    <type id="highway.trunk_link" priority="8" numLanes="1" speed="13.89" disallow="pedestrian bicycle tram rail_urban rail rail_electric rail_fast ship" oneway="1"/>
    <type id="highway.unclassified" priority="4" numLanes="1" speed="13.89" disallow="tram rail_urban rail rail_electric rail_fast ship" oneway="1"/>
    <type id="highway.unsurfaced" priority="1" numLanes="1" speed="8.33" disallow="tram rail_urban rail rail_electric rail_fast ship" oneway="1"/>
    <type id="railway.highspeed" priority="21" numLanes="1" speed="69.44" allow="rail_fast" oneway="1"/>
    <type id="railway.light_rail" priority="19" numLanes="1" speed="27.78" allow="rail_urban" oneway="1"/>
    <type id="railway.preserved" priority="16" numLanes="1" speed="27.78" allow="rail" oneway="1"/>
    <type id="railway.rail" priority="20" numLanes="1" speed="44.44" allow="rail" oneway="1"/>
    <type id="railway.subway" priority="18" numLanes="1" speed="27.78" allow="rail_urban" oneway="1"/>
    <type id="railway.tram" priority="17" numLanes="1" speed="13.89" allow="tram" oneway="1"/>

    <edge id=":1040103702_0" function="internal">
        <lane id=":1040103702_0_0" index="0" disallow="tram rail_urban rail rail_electric rail_fast ship" speed="13.89" length="14.44" shape="1129.78,236.57 1116.73,230.39"/>
    </edge>
    <edge id=":1040103702_1" function="internal">
        <lane id=":1040103702_1_0" index="0" disallow="tram rail_urban rail rail_electric rail_fast ship" speed="6.44" length="9.03" shape="1119.36,237.80 1120.14,235.44 1119.95,233.41 1118.82,231.73 1116.73,230.39"/>
    </edge>
    <edge id=":1040103730_0" function="internal">
        <lane id=":1040103730_0_0" index="0" allow="pedestrian delivery bicycle" speed="6.73" length="9.93" shape="1022.17,448.84 1021.13,447.76 1020.94,445.88 1021.59,443.21 1023.08,439.73"/>
    </edge>
    <edge id=":1040103730_1" function="internal">
        <lane id=":1040103730_1_0" index="0" allow="pedestrian delivery bicycle" speed="3.65" length="4.67" shape="1022.17,448.84 1021.42,447.61 1021.39,446.72 1022.09,446.16 1023.52,445.94"/>
    </edge>
    <edge id=":1040103730_2" function="internal">
        <lane id=":1040103730_2_0" index="0" disallow="tram rail_urban rail rail_electric rail_fast ship" speed="6.51" length="8.94" shape="1012.78,440.87 1015.12,441.61 1017.13,441.42 1018.83,440.32 1020.22,438.31"/>
    </edge>
    <edge id=":1040103730_3" function="internal">
        <lane id=":1040103730_3_0" index="0" allow="pedestrian delivery bicycle" speed="9.72" length="12.42" shape="1011.40,443.76 1015.00,444.93 1017.84,445.06 1020.49,445.08 1023.52,445.94"/>
    </edge>
    <edge id=":1040103730_4" function="internal">
        <lane id=":1040103730_4_0" index="0" disallow="tram rail_urban rail rail_electric rail_fast ship" speed="13.89" length="14.20" shape="1014.08,451.16 1020.22,438.31"/>
        <lane id=":1040103730_4_1" index="1" disallow="tram rail_urban rail rail_electric rail_fast ship" speed="13.89" length="14.20" shape="1016.99,452.50 1023.08,439.73"/>
    </edge>
    <edge id=":1040103730_6" function="internal">
        <lane id=":1040103730_6_0" index="0" allow="pedestrian delivery bicycle" speed="6.81" length="10.00" shape="1016.99,452.50 1018.76,449.13 1020.44,446.91 1022.02,445.84 1023.52,445.94"/>
    </edge>
    <edge id=":1040148526_0" function="internal">
        <lane id=":1040148526_0_0" index="0" disallow="tram rail_urban rail rail_electric rail_fast ship" speed="13.89" length="14.41" shape="931.94,648.09 919.13,641.47"/>
        <lane id=":1040148526_0_1" index="1" disallow="tram rail_urban rail rail_electric rail_fast ship" speed="13.89" length="14.41" shape="933.40,645.24 920.61,638.63"/>
    </edge>
    <edge id=":1040148526_2" function="internal">
        <lane id=":1040148526_2_0" index="0" disallow="tram rail_urban rail rail_electric rail_fast ship" speed="6.61" length="9.17" shape="933.40,645.24 931.37,643.80 930.27,642.04 930.10,639.96 930.87,637.56"/>
    </edge>
    <edge id=":1040148526_3" function="internal">
        <lane id=":1040148526_3_0" index="0" disallow="tram rail_urban rail rail_electric rail_fast ship" speed="6.57" length="9.12" shape="921.65,649.09 922.43,646.73 922.27,644.68 921.17,642.92 919.13,641.47"/>
    </edge>
    <edge id=":1040148526_4" function="internal">
        <lane id=":1040148526_4_0" index="0" disallow="tram rail_urban rail rail_electric rail_fast ship" speed="13.89" length="14.41" shape="921.65,649.09 927.99,636.17"/>
        <lane id=":1040148526_4_1" index="1" disallow="tram rail_urban rail rail_electric rail_fast ship" speed="13.89" length="14.41" shape="924.52,650.52 930.87,637.56"/>
    </edge>
    <edge id=":1040204895_0" function="internal">
        <lane id=":1040204895_0_0" index="0" disallow="tram rail_urban rail rail_electric rail_fast ship" speed="6.48" length="9.03" shape="1124.48,547.87 1126.85,548.60 1128.87,548.39 1130.55,547.24 1131.89,545.15"/>
    </edge>
    <edge id=":1040204895_1" function="internal">
        <lane id=":1040204895_1_0" index="0" disallow="tram rail_urban rail rail_electric rail_fast ship" speed="13.89" length="11.24" shape="1124.48,547.87 1134.69,552.55"/>
    </edge>
    <edge id=":1040204895_2" function="internal">
        <lane id=":1040204895_2_0" index="0" disallow="tram rail_urban rail rail_electric rail_fast ship" speed="16.67" length="11.22" shape="1127.28,555.39 1131.89,545.15"/>
    </edge>
    <edge id=":1040204895_3" function="internal">
        <lane id=":1040204895_3_0" index="0" disallow="tram rail_urban rail rail_electric rail_fast ship" speed="6.51" length="9.05" shape="1127.28,555.39 1128.60,553.29 1130.27,552.12 1132.31,551.87 1134.69,552.55"/>
    </edge>
    <edge id=":1040204906_0" function="internal">
        <lane id=":1040204906_0_0" index="0" disallow="tram rail_urban rail rail_electric rail_fast ship" speed="6.56" length="9.17" shape="972.15,563.70 970.08,562.35 968.94,560.63 968.74,558.55 969.47,556.11"/>
    </edge>
    <edge id=":1040204906_1" function="internal">
        <lane id=":1040204906_1_0" index="0" disallow="tram rail_urban rail rail_electric rail_fast ship" speed="6.40" length="9.04" shape="959.16,557.33 961.51,558.15 963.53,558.00 965.21,556.87 966.56,554.78"/>
    </edge>
    <edge id=":1040204906_2" function="internal">
        <lane id=":1040204906_2_0" index="0" disallow="tram rail_urban rail rail_electric rail_fast ship" speed="13.89" length="11.35" shape="961.80,565.07 966.56,554.78"/>
        <lane id=":1040204906_2_1" index="1" disallow="tram rail_urban rail rail_electric rail_fast ship" speed="13.89" length="11.35" shape="964.70,566.42 969.47,556.11"/>
    </edge>
    <edge id=":1040204910_0" function="internal">
        <lane id=":1040204910_0_0" index="0" disallow="tram rail_urban rail rail_electric rail_fast ship" speed="13.89" length="10.61" shape="1102.10,625.18 1092.44,620.80"/>
    </edge>
    <edge id=":1040204910_1" function="internal">
        <lane id=":1040204910_1_0" index="0" disallow="tram rail_urban rail rail_electric rail_fast ship" speed="6.35" length="8.55" shape="1102.10,625.18 1100.09,623.93 1098.96,622.35 1098.71,620.45 1099.33,618.21"/>
    </edge>
    <edge id=":1040204910_2" function="internal">
        <lane id=":1040204910_2_0" index="0" disallow="tram rail_urban rail rail_electric rail_fast ship" speed="6.66" length="8.78" shape="1095.43,628.07 1095.91,625.72 1095.57,623.72 1094.41,622.08 1092.44,620.80"/>
    </edge>
    <edge id=":1040204910_3" function="internal">
        <lane id=":1040204910_3_0" index="0" disallow="tram rail_urban rail rail_electric rail_fast ship" speed="16.67" length="10.60" shape="1095.43,628.07 1099.33,618.21"/>
    </edge>
    <edge id=":1040204911_0" function="internal">
        <lane id=":1040204911_0_0" index="0" disallow="tram rail_urban rail rail_electric rail_fast ship" speed="6.57" length="9.01" shape="991.42,487.21 993.79,487.83 995.81,487.56 997.49,486.39 998.83,484.31"/>
    </edge>
    <edge id=":1040204911_1" function="internal">
        <lane id=":1040204911_1_0" index="0" disallow="tram rail_urban rail rail_electric rail_fast ship" speed="13.89" length="14.21" shape="991.42,487.21 1004.44,492.89"/>
    </edge>
    <edge id=":1040204911_2" function="internal">
        <lane id=":1040204911_2_0" index="0" disallow="tram rail_urban rail rail_electric rail_fast ship" speed="13.89" length="11.07" shape="994.21,494.38 998.83,484.31"/>
        <lane id=":1040204911_2_1" index="1" disallow="tram rail_urban rail rail_electric rail_fast ship" speed="13.89" length="11.07" shape="997.12,495.71 1001.73,485.65"/>
    </edge>
    <edge id=":1040204911_4" function="internal">
        <lane id=":1040204911_4_0" index="0" disallow="tram rail_urban rail rail_electric rail_fast ship" speed="6.49" length="8.94" shape="997.12,495.71 998.45,493.63 1000.11,492.47 1002.11,492.22 1004.44,492.89"/>
    </edge>
    <edge id=":1040247620_0" function="internal">
        <lane id=":1040247620_0_0" index="0" disallow="tram rail_urban rail rail_electric rail_fast ship" speed="6.65" length="9.05" shape="881.89,373.02 881.32,375.42 881.63,377.46 882.82,379.15 884.88,380.48"/>
    </edge>
    <edge id=":1040247620_1" function="internal">
        <lane id=":1040247620_1_0" index="0" disallow="tram rail_urban rail rail_electric rail_fast ship" speed="13.89" length="14.12" shape="881.89,373.02 876.46,386.05"/>
    </edge>
    <edge id=":1040247620_2" function="internal">
        <lane id=":1040247620_2_0" index="0" disallow="tram rail_urban rail rail_electric rail_fast ship" speed="13.89" length="11.10" shape="874.95,375.66 884.88,380.48"/>
        <lane id=":1040247620_2_1" index="1" disallow="tram rail_urban rail rail_electric rail_fast ship" speed="13.89" length="11.10" shape="873.50,378.51 883.54,383.39"/>
    </edge>
    <edge id=":1040247620_4" function="internal">
        <lane id=":1040247620_4_0" index="0" disallow="tram rail_urban rail rail_electric rail_fast ship" speed="6.66" length="9.13" shape="873.50,378.51 875.62,379.97 876.82,381.71 877.10,383.74 876.46,386.05"/>
    </edge>
    <edge id=":1040247664_0" function="internal">
        <lane id=":1040247664_0_0" index="0" disallow="tram rail_urban rail rail_electric rail_fast ship" speed="6.39" length="9.04" shape="793.31,575.47 790.96,574.63 788.95,574.76 787.26,575.88 785.91,577.98"/>
    </edge>
    <edge id=":1040247664_1" function="internal">
        <lane id=":1040247664_1_0" index="0" disallow="tram rail_urban rail rail_electric rail_fast ship" speed="13.89" length="11.44" shape="793.31,575.47 783.19,570.15"/>
        <lane id=":1040247664_1_1" index="1" disallow="tram rail_urban rail rail_electric rail_fast ship" speed="13.89" length="11.44" shape="794.81,572.64 784.68,567.31"/>
    </edge>
    <edge id=":1040247664_3" function="internal">
        <lane id=":1040247664_3_0" index="0" disallow="tram rail_urban rail rail_electric rail_fast ship" speed="13.89" length="14.52" shape="792.18,564.88 785.91,577.98"/>
    </edge>
    <edge id=":1040247664_4" function="internal">
        <lane id=":1040247664_4_0" index="0" disallow="tram rail_urban rail rail_electric rail_fast ship" speed="6.47" length="9.03" shape="792.18,564.88 790.77,566.92 789.05,568.01 787.02,568.14 784.68,567.31"/>
    </edge>
    <edge id=":1040247681_0" function="internal">
        <lane id=":1040247681_0_0" index="0" disallow="tram rail_urban rail rail_electric rail_fast ship" speed="6.50" length="9.03" shape="859.70,423.78 859.02,426.16 859.27,428.19 860.45,429.85 862.55,431.16"/>
    </edge>
    <edge id=":1040247681_1" function="internal">
        <lane id=":1040247681_1_0" index="0" disallow="tram rail_urban rail rail_electric rail_fast ship" speed="13.89" length="11.23" shape="859.70,423.78 855.07,434.02"/>
    </edge>
    <edge id=":1040247681_2" function="internal">
        <lane id=":1040247681_2_0" index="0" disallow="tram rail_urban rail rail_electric rail_fast ship" speed="6.53" length="9.07" shape="859.70,423.78 858.38,425.88 856.70,427.06 854.66,427.31 852.26,426.65"/>
    </edge>
    <edge id=":1040247683_0" function="internal">
        <lane id=":1040247683_0_0" index="0" disallow="tram rail_urban rail rail_electric rail_fast ship" speed="6.59" length="8.97" shape="741.43,674.95 740.72,677.31 740.91,679.35 741.98,681.08 743.95,682.48"/>
    </edge>
    <edge id=":1040247683_1" function="internal">
        <lane id=":1040247683_1_0" index="0" disallow="tram rail_urban rail rail_electric rail_fast ship" speed="13.89" length="10.98" shape="741.43,674.95 736.68,684.84"/>
    </edge>
    <edge id=":1040247683_2" function="internal">
        <lane id=":1040247683_2_0" index="0" disallow="tram rail_urban rail rail_electric rail_fast ship" speed="6.25" length="8.75" shape="741.43,674.95 740.12,676.98 738.49,678.05 736.54,678.15 734.28,677.29"/>
    </edge>
    <edge id=":1040247685_0" function="internal">
        <lane id=":1040247685_0_0" index="0" disallow="tram rail_urban rail rail_electric rail_fast ship" speed="3.91" length="2.53" shape="983.20,167.49 982.54,167.28 981.97,167.32 981.49,167.63 981.08,168.19"/>
    </edge>
    <edge id=":1040247716_0" function="internal">
        <lane id=":1040247716_0_0" index="0" disallow="tram rail_urban rail rail_electric rail_fast ship" speed="6.48" length="9.04" shape="829.53,489.72 828.82,492.11 829.05,494.14 830.22,495.80 832.33,497.12"/>
    </edge>
    <edge id=":1040247716_1" function="internal">
        <lane id=":1040247716_1_0" index="0" disallow="tram rail_urban rail rail_electric rail_fast ship" speed="13.89" length="11.25" shape="829.53,489.72 824.67,499.87"/>
    </edge>
    <edge id=":1040247716_2" function="internal">
        <lane id=":1040247716_2_0" index="0" disallow="tram rail_urban rail rail_electric rail_fast ship" speed="13.89" length="11.26" shape="822.11,492.38 832.33,497.12"/>
    </edge>
    <edge id=":1040247716_3" function="internal">
        <lane id=":1040247716_3_0" index="0" disallow="tram rail_urban rail rail_electric rail_fast ship" speed="6.49" length="9.05" shape="822.11,492.38 824.17,493.77 825.29,495.49 825.45,497.52 824.67,499.87"/>
    </edge>
    <edge id=":1040294523_0" function="internal">
        <lane id=":1040294523_0_0" index="0" disallow="tram rail_urban rail rail_electric rail_fast ship" speed="6.55" length="8.94" shape="894.32,524.40 896.69,525.08 898.72,524.86 900.40,523.74 901.75,521.74"/>
    </edge>
    <edge id=":1040294523_1" function="internal">
        <lane id=":1040294523_1_0" index="0" disallow="tram rail_urban rail rail_electric rail_fast ship" speed="13.89" length="11.04" shape="894.32,524.40 904.29,529.13"/>
    </edge>
    <edge id=":1040294523_2" function="internal">
        <lane id=":1040294523_2_0" index="0" disallow="tram rail_urban rail rail_electric rail_fast ship" speed="13.89" length="10.99" shape="896.92,531.61 901.75,521.74"/>
    </edge>
    <edge id=":1040294523_3" function="internal">
        <lane id=":1040294523_3_0" index="0" disallow="tram rail_urban rail rail_electric rail_fast ship" speed="6.44" length="8.88" shape="896.92,531.61 898.31,529.59 900.00,528.51 901.99,528.35 904.29,529.13"/>
    </edge>
    <edge id=":1040294541_0" function="internal">
        <lane id=":1040294541_0_0" index="0" disallow="tram rail_urban rail rail_electric rail_fast ship" speed="6.44" length="9.03" shape="716.53,535.32 714.18,534.49 712.16,534.62 710.45,535.72 709.05,537.78"/>
    </edge>
    <edge id=":1040294541_1" function="internal">
        <lane id=":1040294541_1_0" index="0" disallow="tram rail_urban rail rail_electric rail_fast ship" speed="13.89" length="14.40" shape="715.33,524.82 709.05,537.78"/>
    </edge>
    <edge id=":1040294548_0" function="internal">
        <lane id=":1040294548_0_0" index="0" disallow="tram rail_urban rail rail_electric rail_fast ship" speed="3.91" length="2.52" shape="710.43,737.18 710.21,737.83 710.25,738.40 710.55,738.89 711.10,739.30"/>
    </edge>
    <edge id=":1040294596_0" function="internal">
        <lane id=":1040294596_0_0" index="0" disallow="tram rail_urban rail rail_electric rail_fast ship" speed="6.61" length="9.21" shape="783.50,778.59 781.44,777.14 780.33,775.37 780.17,773.29 780.94,770.89"/>
    </edge>
    <edge id=":1040294596_1" function="internal">
        <lane id=":1040294596_1_0" index="0" disallow="tram rail_urban rail rail_electric rail_fast ship" speed="6.41" length="9.04" shape="773.47,773.28 775.80,774.15 777.83,774.04 779.54,772.95 780.94,770.89"/>
    </edge>
    <edge id=":1040294596_2" function="internal">
        <lane id=":1040294596_2_0" index="0" disallow="tram rail_urban rail rail_electric rail_fast ship" speed="13.89" length="11.35" shape="776.09,781.15 780.94,770.89"/>
    </edge>
    <edge id=":1040294609_0" function="internal">
        <lane id=":1040294609_0_0" index="0" disallow="tram rail_urban rail rail_electric rail_fast ship" speed="13.89" length="11.33" shape="784.04,396.82 773.67,392.25"/>
    </edge>
    <edge id=":1040294609_1" function="internal">
        <lane id=":1040294609_1_0" index="0" disallow="tram rail_urban rail rail_electric rail_fast ship" speed="6.42" length="4.32" shape="784.04,396.82 781.93,395.51 780.88,394.01"/>
    </edge>
    <edge id=":1040294609_4" function="internal">
        <lane id=":1040294609_4_0" index="0" disallow="tram rail_urban rail rail_electric rail_fast ship" speed="6.42" length="4.72" shape="780.88,394.01 780.77,393.84 780.57,391.83 781.33,389.45"/>
    </edge>
    <edge id=":1040294609_2" function="internal">
        <lane id=":1040294609_2_0" index="0" disallow="tram rail_urban rail rail_electric rail_fast ship" speed="6.42" length="9.04" shape="776.34,399.63 777.12,397.26 776.93,395.25 775.78,393.57 773.67,392.25"/>
    </edge>
    <edge id=":1040294609_3" function="internal">
        <lane id=":1040294609_3_0" index="0" disallow="tram rail_urban rail rail_electric rail_fast ship" speed="13.89" length="11.33" shape="776.34,399.63 781.33,389.45"/>
    </edge>
    <edge id=":1040294731_0" function="internal">
        <lane id=":1040294731_0_0" index="0" disallow="tram rail_urban rail rail_electric rail_fast ship" speed="13.89" length="11.04" shape="862.81,612.15 853.02,607.02"/>
        <lane id=":1040294731_0_1" index="1" disallow="tram rail_urban rail rail_electric rail_fast ship" speed="13.89" length="11.04" shape="864.29,609.31 854.52,604.19"/>
    </edge>
    <edge id=":1040294731_2" function="internal">
        <lane id=":1040294731_2_0" index="0" disallow="tram rail_urban rail rail_electric rail_fast ship" speed="6.51" length="8.94" shape="864.29,609.31 862.28,607.88 861.19,606.16 861.03,604.15 861.79,601.86"/>
    </edge>
    <edge id=":1040294731_3" function="internal">
        <lane id=":1040294731_3_0" index="0" disallow="tram rail_urban rail rail_electric rail_fast ship" speed="6.61" length="9.02" shape="855.61,614.58 856.32,612.25 856.13,610.21 855.03,608.47 853.02,607.02"/>
    </edge>
    <edge id=":1040294731_4" function="internal">
        <lane id=":1040294731_4_0" index="0" disallow="tram rail_urban rail rail_electric rail_fast ship" speed="13.89" length="14.14" shape="855.61,614.58 861.79,601.86"/>
    </edge>
    <edge id=":1040294759_0" function="internal">
        <lane id=":1040294759_0_0" index="0" disallow="tram rail_urban rail rail_electric rail_fast ship" speed="6.43" length="9.03" shape="802.96,712.98 805.31,713.80 807.34,713.65 809.03,712.54 810.40,710.46"/>
    </edge>
    <edge id=":1040294759_1" function="internal">
        <lane id=":1040294759_1_0" index="0" disallow="tram rail_urban rail rail_electric rail_fast ship" speed="13.89" length="11.31" shape="802.96,712.98 812.98,718.23"/>
    </edge>
    <edge id=":1040294759_2" function="internal">
        <lane id=":1040294759_2_0" index="0" disallow="tram rail_urban rail rail_electric rail_fast ship" speed="13.89" length="11.31" shape="805.51,720.66 810.40,710.46"/>
    </edge>
    <edge id=":1040294759_3" function="internal">
        <lane id=":1040294759_3_0" index="0" disallow="tram rail_urban rail rail_electric rail_fast ship" speed="6.44" length="9.03" shape="805.51,720.66 806.91,718.60 808.62,717.51 810.64,717.39 812.98,718.23"/>
    </edge>
    <edge id=":1040294781_0" function="internal">
        <lane id=":1040294781_0_0" index="0" disallow="tram rail_urban rail rail_electric rail_fast ship" speed="13.89" length="10.94" shape="925.67,459.07 935.63,463.59"/>
    </edge>
    <edge id=":1040294781_1" function="internal">
        <lane id=":1040294781_1_0" index="0" disallow="tram rail_urban rail rail_electric rail_fast ship" speed="6.53" length="4.25" shape="928.28,466.35 929.63,464.32 931.13,463.30"/>
    </edge>
    <edge id=":1040294781_2" function="internal">
        <lane id=":1040294781_2_0" index="0" disallow="tram rail_urban rail rail_electric rail_fast ship" speed="6.53" length="4.64" shape="931.13,463.30 931.31,463.18 933.31,462.94 935.63,463.59"/>
    </edge>
    <edge id=":1040294876_0" function="internal">
        <lane id=":1040294876_0_0" index="0" disallow="tram rail_urban rail rail_electric rail_fast ship" speed="6.49" length="9.03" shape="808.60,337.11 807.84,339.46 808.03,341.49 809.15,343.20 811.21,344.57"/>
    </edge>
    <edge id=":1040294876_1" function="internal">
        <lane id=":1040294876_1_0" index="0" disallow="tram rail_urban rail rail_electric rail_fast ship" speed="3.65" length="4.67" shape="808.60,337.11 807.36,337.83 806.46,337.84 805.92,337.13 805.73,335.70"/>
    </edge>
    <edge id=":1040294876_2" function="internal">
        <lane id=":1040294876_2_0" index="0" disallow="tram rail_urban rail rail_electric rail_fast ship" speed="6.54" length="9.07" shape="798.22,338.36 800.58,339.10 802.61,338.90 804.33,337.77 805.73,335.70"/>
    </edge>
    <edge id=":1040294876_3" function="internal">
        <lane id=":1040294876_3_0" index="0" disallow="tram rail_urban rail rail_electric rail_fast ship" speed="13.89" length="14.40" shape="798.22,338.36 811.21,344.57"/>
        <lane id=":1040294876_3_1" index="1" disallow="tram rail_urban rail rail_electric rail_fast ship" speed="13.89" length="14.40" shape="796.84,341.25 809.83,347.46"/>
    </edge>
    <edge id=":1040294876_5" function="internal">
        <lane id=":1040294876_5_0" index="0" disallow="tram rail_urban rail rail_electric rail_fast ship" speed="13.89" length="14.54" shape="800.84,349.38 802.22,345.98 803.28,342.54 804.35,339.11 805.73,335.70"/>
    </edge>
    <edge id=":1040294876_6" function="internal">
        <lane id=":1040294876_6_0" index="0" disallow="tram rail_urban rail rail_electric rail_fast ship" speed="6.96" length="10.42" shape="800.84,349.38 802.33,347.37 804.32,346.38 806.82,346.41 809.83,347.46"/>
    </edge>
    <edge id=":1040375471_0" function="internal">
        <lane id=":1040375471_0_0" index="0" disallow="tram rail_urban rail rail_electric rail_fast ship" speed="13.89" length="4.99" shape="945.81,236.32 943.50,240.74"/>
    </edge>
    <edge id=":1040375479_0" function="internal">
        <lane id=":1040375479_0_0" index="0" disallow="tram rail_urban rail rail_electric rail_fast ship" speed="6.14" length="7.76" shape="1298.46,619.13 1297.72,621.48 1297.71,623.39 1298.41,624.86 1299.83,625.90"/>
    </edge>
    <edge id=":1040375479_1" function="internal">
        <lane id=":1040375479_1_0" index="0" disallow="tram rail_urban rail rail_electric rail_fast ship" speed="13.89" length="11.19" shape="1298.46,619.13 1294.18,629.43"/>
        <lane id=":1040375479_1_1" index="1" disallow="tram rail_urban rail rail_electric rail_fast ship" speed="13.89" length="11.19" shape="1295.52,617.87 1291.21,628.23"/>
    </edge>
    <edge id=":1040375479_3" function="internal">
        <lane id=":1040375479_3_0" index="0" disallow="tram rail_urban rail rail_electric rail_fast ship" speed="13.89" length="12.64" shape="1288.30,620.70 1299.83,625.90"/>
    </edge>
    <edge id=":1040375479_4" function="internal">
        <lane id=":1040375479_4_0" index="0" disallow="tram rail_urban rail rail_electric rail_fast ship" speed="6.62" length="9.14" shape="1288.30,620.70 1290.38,622.01 1291.55,623.70 1291.83,625.78 1291.21,628.23"/>
    </edge>
    <edge id=":1040375484_0" function="internal">
        <lane id=":1040375484_0_0" index="0" disallow="tram rail_urban rail rail_electric rail_fast ship" speed="13.89" length="10.62" shape="1083.36,717.36 1080.23,716.60 1078.11,715.99 1076.03,715.22 1073.04,714.01"/>
        <lane id=":1040375484_0_1" index="1" disallow="tram rail_urban rail rail_electric rail_fast ship" speed="13.89" length="10.62" shape="1084.10,714.24 1081.11,713.52 1079.08,712.93 1077.10,712.20 1074.25,711.05"/>
    </edge>
    <edge id=":1040375484_2" function="internal">
        <lane id=":1040375484_2_0" index="0" disallow="tram rail_urban rail rail_electric rail_fast ship" speed="6.48" length="8.54" shape="1084.10,714.24 1081.98,713.40 1080.59,712.06 1079.94,710.20 1080.02,707.84"/>