<?xml version="1.0" encoding="UTF-8"?>
<!-- generated on 2021-08-13 12:32:42.153178 by main.py UNKNOWN
  options: 
-->
<routes xmlns:xsi="http://www.w3.org/2001/XMLSchema-instance" xsi:noNamespaceSchemaLocation="http://sumo.dlr.de/xsd/routes_file.xsd">
   <vType id="v_passenger" guiShape="passenger" type="passenger" accel="0.8" decel="4.5" sigma="0.5" length="5" minGap="3" maxSpeed="16.67" />
   <vType id="v_bus" guiShape="bus" type="bus" accel="0.8" decel="4.5" sigma="0.5" length="10" minGap="3" maxSpeed="16.67" />
   <vType id="v_emergency" guiShape="emergency" type="emergency" accel="0.8" decel="4.5" sigma="0.5" length="5" minGap="3" maxSpeed="30" />
   <vType id="v_firebrigade" guiShape="firebrigade" type="emergency" accel="0.8" decel="4.5" sigma="0.5" length="7" minGap="3" maxSpeed="28" />
   <vType id="v_police" guiShape="police" type="emergency" accel="0.8" decel="4.5" sigma="0.5" length="5" minGap="3" maxSpeed="28" />
   <route cost="472.05000000000007" id="0" edges="155015126#1 155015126#2 155015126#3 155015126#4 155015126#5 155015126#6 155015126#7 155015126#9 155015126#10" />
   <route cost="546.47" id="1" edges="385577498#0 385577498#1 89763489#5 141844770#1 141844770#2 141844770#3 141844770#4 141844770#5" />
   <route cost="389.3" id="2" edges="201272993#1 201272993#2 201272993#4 201272993#5 201272993#6" />
   <route cost="572.8600000000001" id="3" edges="89905639#0 183092106#2 183092106#3 183092106#4 183092106#5 183092106#6 183092106#7 154548820#1 154548820#2" />
   <flow id="flow0" type="v_passenger" route="0" begin="0" period="3" number="50"/>
<!--   <flow id="flow1" type="v_passenger" route="1" begin="0" period="3" number="50"/>-->
   <flow id="flow2" type="v_passenger" route="2" begin="0" period="3" number="50"/>
<!--   <flow id="flow3" type="v_passenger" route="3" begin="0" period="3" number="50"/>-->
<!--   <flow id="flow4" type="v_passenger" route="0" begin="0" period="3" number="50"/>-->
<!--   <flow id="flow5" type="v_passenger" route="1" begin="0" period="3" number="50"/>-->
<!--   <flow id="flow6" type="v_passenger" route="2" begin="0" period="3" number="50"/>-->
<!--   <flow id="flow7" type="v_passenger" route="3" begin="0" period="3" number="50"/>-->
<!--   <flow id="flow8" type="v_passenger" route="0" begin="0" period="3" number="50"/>-->
<!--   <flow id="flow9" type="v_passenger" route="1" begin="0" period="3" number="50"/>-->
   <vehicle id="ev0" depart="30.0" route="0" type="v_emergency"/>
   <vehicle id="ev1" depart="60.0" route="2" type="v_emergency"/>
   <vehicle id="ev2" depart="90.0" route="0" type="v_emergency"/>
   <vehicle id="ev3" depart="120.0" route="2" type="v_emergency"/>
   <vehicle id="ev4" depart="150.0" route="0" type="v_emergency"/>
   <vehicle id="ev5" depart="180" route="0" type="v_emergency"/>
<!--   <vehicle id="veh6" depart="6.0" route="0" type="v_passenger"/>-->
<!--   <vehicle id="veh7" depart="7.0" route="0" type="v_passenger"/>-->
<!--   <vehicle id="veh8" depart="8.0" route="1" type="v_passenger"/>-->
<!--   <vehicle id="veh9" depart="9.0" route="3" type="v_passenger"/>-->
</routes>
