<?xml version="1.0" encoding="UTF-8"?>

<!-- generated on 2022-03-27 21:32:24 by Eclipse SUMO netedit Version 1.12.0
<configuration xmlns:xsi="http://www.w3.org/2001/XMLSchema-instance" xsi:noNamespaceSchemaLocation="http://sumo.dlr.de/xsd/netconvertConfiguration.xsd">

    <input>
        <sumo-net-file value="/root/tools/omnetpp-5.7/samples/ev_sbesc/ev_sbesc/examples/ev_sbesc/default.net.xml"/>
    </input>

    <output>
        <output-file value="/root/tools/omnetpp-5.7/samples/ev_sbesc/ev_sbesc/examples/ev_sbesc/default.net.xml"/>
    </output>

    <processing>
        <geometry.min-radius.fix.railways value="false"/>
        <geometry.max-grade.fix value="false"/>
        <offset.disable-normalization value="true"/>
        <lefthand value="false"/>
    </processing>

    <junctions>
        <no-turnarounds value="true"/>
        <junctions.corner-detail value="5"/>
        <junctions.limit-turn-speed value="5.5"/>
        <rectangular-lane-cut value="false"/>
    </junctions>

    <pedestrian>
        <walkingareas value="false"/>
    </pedestrian>

    <netedit>
        <additional-files value="/root/tools/omnetpp-5.7/samples/ev_sbesc/ev_sbesc/examples/ev_sbesc/default.poly.xml"/>
    </netedit>

    <report>
        <aggregate-warnings value="5"/>
    </report>

</configuration>
-->

<additional xmlns:xsi="http://www.w3.org/2001/XMLSchema-instance" xsi:noNamespaceSchemaLocation="http://sumo.dlr.de/xsd/additional_file.xsd">
    <poly id="141835657" type="unknown" color="51,128,255" fill="0" layer="-1.00" shape="853.811686,240.714325 804.005116,342.900020"/>
    <poly id="141844770" type="unknown" color="51,128,255" fill="0" layer="-1.00" shape="857.424705,428.897453 923.279706,457.944513 930.661118,461.393153 939.279033,465.213571 997.979971,489.984048 1079.960699,526.843884 1129.557910,550.267930 1169.781791,568.121871 1294.809172,623.593748 1304.863095,628.209405"/>
    <poly id="141844775" type="unknown" color="51,128,255" fill="0" layer="-1.00" shape="1018.502531,445.376143 1101.631147,483.791657"/>
    <poly id="141844776" type="unknown" color="51,128,255" fill="0" layer="-1.00" shape="1044.739706,597.343620 975.735948,565.184749 965.619038,560.678748"/>
    <poly id="147174430" type="unknown" color="51,128,255" fill="0" layer="-1.00" shape="1263.916842,700.169241 1214.021905,677.439393 1137.118516,640.673583 1097.199631,623.012148 1074.799337,612.607524 1056.422488,603.621648 1044.739706,597.343620"/>
    <poly id="148715518" type="building" color="51,128,255" fill="1" layer="-1.00" shape="703.132383,653.094626 729.385569,595.075511 744.594479,602.366922 717.802523,660.024041 703.132383,653.094626"/>
    <poly id="149941764" type="unknown" color="51,128,255" fill="1" layer="-1.00" shape="872.674853,420.050075 884.309044,392.420755 938.404766,417.725149 926.052285,444.624436 872.674853,420.050075"/>
    <poly id="149941767" type="building" color="51,128,255" fill="1" layer="-1.00" shape="1006.045571,489.277263 1077.995666,521.333256 1095.098797,484.198713 1022.876926,451.042357 1006.045571,489.277263"/>
    <poly id="149942442" type="building" color="51,128,255" fill="1" layer="-1.00" shape="864.660427,426.628334 993.067939,482.405051 1009.959778,447.915039 883.258586,390.489712 864.660427,426.628334"/>
    <poly id="149942444" type="building" color="51,128,255" fill="1" layer="-1.00" shape="1031.671178,695.203474 1074.538959,612.880806 1056.287587,604.461614 1042.462303,598.020674 1023.173336,638.071070 1002.801264,683.644802 1018.634636,689.593260 1031.671178,695.203474"/>
    <poly id="150930533" type="unknown" color="51,128,255" fill="0" layer="-1.00" shape="1001.118224,312.740072 952.935890,414.051679"/>
    <poly id="151427297" type="unknown" color="51,128,255" fill="1" layer="-1.00" shape="934.768382,275.101667 948.491796,247.025261 1079.154966,310.177031 1065.431606,338.264613 934.768382,275.101667"/>
    <poly id="151427298" type="unknown" color="51,128,255" fill="1" layer="-1.00" shape="937.170748,275.024542 949.318417,249.551326 1017.734098,281.824082 1005.586374,307.308421 937.170748,275.024542"/>
    <poly id="151427300" type="unknown" color="51,128,255" fill="0" layer="-1.00" shape="748.334247,456.357380 778.847444,394.554189 804.005116,342.900020"/>
    <poly id="151945684" type="building" color="51,128,255" fill="1" layer="-1.00" shape="1073.061086,657.622381 1081.561791,661.762297 1085.908093,637.907822 1066.473670,629.693632 1056.389160,650.731774 1065.288112,654.279113 1070.017725,643.367970 1076.138935,645.945961 1073.061086,657.622381"/>
    <poly id="159116085" type="unknown" color="51,128,255" fill="1" layer="-1.00" shape="1199.497287,737.871848 1214.317202,682.007253 1262.280880,704.145170 1244.138467,747.368779 1199.497287,737.871848"/>
    <poly id="228323740" type="unknown" color="51,128,255" fill="0" layer="-1.00" shape="1241.501804,523.476550 1354.445123,463.323321"/>
    <poly id="231991054" type="unknown" color="51,128,255" fill="0" layer="-1.00" shape="1201.638821,719.026564 1129.895969,702.880779"/>
    <poly id="231991088" type="unknown" color="51,128,255" fill="0" layer="-1.00" shape="1196.133761,739.896210 1201.638821,719.026564 1214.021905,677.439393"/>
    <poly id="318429524" type="unknown" color="51,128,255" fill="1" layer="-1.00" shape="960.850079,790.615464 969.314940,795.120478 976.961812,779.619998 980.796558,781.324159 985.030318,773.585200 980.665115,770.920989 991.291390,749.314462 983.633879,745.784462 981.920744,750.135906 973.567383,766.988971 969.174713,765.553922 964.654307,773.975640 969.176486,775.689429 960.850079,790.615464"/>
    <poly id="318430721" type="building" color="51,128,255" fill="1" layer="-1.00" shape="1002.801264,683.644802 1031.671178,695.203474 977.637468,805.394626 951.742552,790.233179 966.493196,760.642487 980.873983,731.810922 992.900343,707.687356 1002.801264,683.644802"/>
    <poly id="341199883" type="unknown" color="51,128,255" fill="0" layer="-1.00" shape="1417.829175,374.031184 1339.427866,338.065060 1274.905945,306.147374 1202.551702,272.225660 1123.319096,233.399891 1056.673822,202.946872 981.806608,166.806654"/>
    <poly id="385036826" type="unknown" color="51,128,255" fill="0" layer="-1.00" shape="739.124645,679.984666 661.146772,636.477499"/>
    <poly id="385036827" type="unknown" color="51,128,255" fill="0" layer="-1.00" shape="947.816616,868.337739 877.239903,831.902920 866.465462,824.507629 861.044606,818.815643 857.276876,812.327109 853.338100,799.001647"/>
    <poly id="385036993" type="unknown" color="51,128,255" fill="0" layer="-1.00" shape="739.124645,679.984666 807.988105,715.576527 872.988399,750.050538"/>
    <poly id="385577494" type="unknown" color="51,128,255" fill="0" layer="-1.00" shape="719.866353,302.707309 804.005116,342.900020 854.280542,366.921658 879.305394,379.667450 927.237358,401.772897 948.379298,411.872156 952.935890,414.051679 1018.502531,445.376143"/>
    <poly id="385577495" type="unknown" color="51,128,255" fill="0" layer="-1.00" shape="719.866353,302.707309 770.137732,199.608965"/>
    <poly id="385577496" type="unknown" color="51,128,255" fill="0" layer="-1.00" shape="857.424705,428.897453 778.847444,394.554189 693.557333,356.682477"/>
    <poly id="385577497" type="unknown" color="51,128,255" fill="0" layer="-1.00" shape="693.557333,356.682477 719.866353,302.707309"/>
    <poly id="385577498" type="unknown" color="51,128,255" fill="0" layer="-1.00" shape="748.334247,456.357380 827.182076,494.847381 899.402383,526.642193 936.582978,545.617250 959.213362,557.166253 965.619038,560.678748"/>
    <poly id="385577499" type="unknown" color="51,128,255" fill="0" layer="-1.00" shape="748.334247,456.357380 716.360090,522.803485 712.218751,531.263681 661.146772,636.477499"/>
    <poly id="385577502" type="unknown" color="51,128,255" fill="0" layer="-1.00" shape="1417.829175,374.031184 1367.808065,469.801823 1308.408335,591.893142 1294.809172,623.593748"/>
    <poly id="385577503" type="unknown" color="51,128,255" fill="0" layer="-1.00" shape="1427.372756,376.235932 1376.659311,474.555710 1304.863095,628.209405"/>
    <poly id="404609842" type="unknown" color="51,128,255" fill="1" layer="-1.00" shape="1088.607160,516.895866 1106.490624,525.199110 1110.410944,519.316680 1108.558924,517.463057 1112.672722,510.220860 1095.456674,502.624814 1088.607160,516.895866"/>
    <poly id="476463042" type="unknown" color="51,128,255" fill="1" layer="-1.00" shape="1184.670798,315.109459 1247.596783,342.264263 1270.648012,307.561079 1203.655145,276.239899 1184.670798,315.109459"/>
    <poly id="803134395" type="building" color="51,128,255" fill="1" layer="-1.00" shape="1025.050732,722.426759 1035.134734,702.164016 1065.800392,717.403169 1061.283123,728.538825 1038.913774,718.112440 1034.065279,727.249589 1025.050732,722.426759"/>
    <poly id="816864961" type="unknown" color="51,128,255" fill="1" layer="-1.00" shape="940.841345,591.081647 932.216041,587.050670 929.709643,592.354702 921.594089,588.563475 923.677523,584.150761 915.103217,580.142641 908.366981,594.370908 915.248816,597.591012 917.458942,592.925301 926.950772,597.367195 924.772050,601.989039 933.703148,606.168303 940.841345,591.081647"/>
    <poly id="816864962" type="unknown" color="51,128,255" fill="1" layer="-1.00" shape="973.883439,487.874353 973.777427,488.116563 971.068207,493.982689 968.665986,499.177413 968.496553,499.551660 965.956453,505.065688 969.709045,506.768709 977.897158,510.505544 985.823977,493.325279 973.883439,487.874353"/>
    <poly id="816864965" type="unknown" color="51,128,255" fill="1" layer="-1.00" shape="944.895893,487.678918 946.866784,483.973556 949.296281,476.098574 932.872687,468.347273 930.904121,471.886510 920.877845,494.620176 929.940217,498.214204 933.542758,489.380872 934.636478,487.490939 936.841956,483.888556 944.895893,487.678918"/>
    <poly id="816864966" type="unknown" color="51,128,255" fill="1" layer="-1.00" shape="929.940217,498.214204 936.841956,483.888556 944.895893,487.678918 938.046678,501.185603 929.940217,498.214204"/>
    <poly id="816864967" type="unknown" color="51,128,255" fill="1" layer="-1.00" shape="971.332611,524.204538 977.897158,510.505544 969.709045,506.768709 967.939637,510.742743 963.013367,509.311290 964.586724,504.680966 955.562256,500.577947 950.564353,513.789327 971.332611,524.204538"/>
    <poly id="816864968" type="unknown" color="51,128,255" fill="1" layer="-1.00" shape="965.934368,535.959225 970.552923,530.784456 971.332611,524.204538 961.975930,520.373798 959.378271,524.867932 955.560513,531.482849 959.263207,533.085480 964.751023,535.455267 965.934368,535.959225"/>
    <poly id="816864969" type="unknown" color="51,128,255" fill="1" layer="-1.00" shape="959.378271,524.867932 961.975930,520.373798 948.402453,514.279674 941.429882,525.602459 950.807082,529.433499 954.339111,522.703812 959.378271,524.867932"/>
    <poly id="816864970" type="unknown" color="51,128,255" fill="1" layer="-1.00" shape="961.971523,541.209637 964.751023,535.455267 959.263207,533.085480 956.557496,532.837130 955.797085,535.108351 953.100058,534.239809 953.552642,531.233193 948.982366,530.028261 947.134797,535.186442 961.971523,541.209637"/>
    <poly id="816864971" type="unknown" color="51,128,255" fill="1" layer="-1.00" shape="954.062029,552.751926 957.790315,552.527205 962.207579,547.803777 963.436799,544.298492 962.374508,542.478061 944.149713,534.369249 943.208652,536.349937 940.769212,535.407460 939.724464,537.464236 937.927832,541.183114 936.582978,545.617250 954.062029,552.751926"/>
    <poly id="817291290" type="unknown" color="51,128,255" fill="1" layer="-1.00" shape="919.212041,631.885633 923.601230,623.307012 903.500251,613.598945 898.959322,622.020357 919.212041,631.885633"/>
    <poly id="817291291" type="unknown" color="51,128,255" fill="1" layer="-1.00" shape="1030.523133,515.484779 1028.253973,519.972444 1027.166957,522.117249 1038.895178,527.343616 1042.441146,520.348259 1030.523133,515.484779"/>
    <poly id="817291292" type="unknown" color="51,128,255" fill="1" layer="-1.00" shape="1018.270434,514.737260 1009.593592,528.318082 1023.631441,534.230338 1030.180847,520.143417 1018.270434,514.737260"/>
    <poly id="817291293" type="unknown" color="51,128,255" fill="1" layer="-1.00" shape="994.948967,525.432424 993.241563,528.643013 990.090543,534.547265 989.911315,534.888143 1001.806516,540.648575 1005.459655,534.795659 1007.088697,531.318122 994.948967,525.432424"/>
    <poly id="817291294" type="unknown" color="51,128,255" fill="1" layer="-1.00" shape="1018.270434,514.737260 1008.882350,510.950418 1004.193508,510.884778 993.241563,528.643013 1005.459655,534.795659 1009.593592,528.318082 1018.270434,514.737260"/>
    <poly id="817291295" type="unknown" color="51,128,255" fill="1" layer="-1.00" shape="990.090543,534.547265 987.537369,539.529415 1003.674843,546.468017 1005.876069,541.702478 990.090543,534.547265"/>
    <poly id="817291296" type="unknown" color="51,128,255" fill="1" layer="-1.00" shape="987.385975,540.081147 1018.845896,554.268158 1014.445463,563.655265 984.178923,548.521253 987.385975,540.081147"/>
    <poly id="817291297" type="unknown" color="51,128,255" fill="1" layer="-1.00" shape="1014.445463,563.655265 984.178923,548.521253 980.895085,557.314749 1011.323576,571.143944 1014.445463,563.655265"/>
    <poly id="817291298" type="unknown" color="51,128,255" fill="1" layer="-1.00" shape="1066.389112,544.809199 1048.447646,536.250325 1050.582802,531.805090 1054.144604,524.411179 1070.730490,533.039692 1066.389112,544.809199"/>
    <poly id="817291299" type="unknown" color="51,128,255" fill="1" layer="-1.00" shape="1054.144604,524.411179 1042.441146,520.348259 1038.895178,527.343616 1050.582802,531.805090 1054.144604,524.411179"/>
    <poly id="817720171" type="unknown" color="51,128,255" fill="1" layer="-1.00" shape="920.847656,532.680451 923.356625,530.123562 923.286525,525.603149 915.078980,521.788473 915.394313,519.056861 910.345497,516.117197 905.782702,525.369081 920.847656,532.680451"/>
    <poly id="817720172" type="unknown" color="51,128,255" fill="1" layer="-1.00" shape="927.047957,536.201165 931.676715,528.833296 924.506542,525.686698 920.984937,533.136532 927.047957,536.201165"/>
    <poly id="817720173" type="unknown" color="51,128,255" fill="1" layer="-1.00" shape="931.676715,528.833296 938.098837,531.902953 936.217643,535.797880 939.724464,537.464236 937.927832,541.183114 927.998731,536.458175 931.676715,528.833296"/>
    <poly id="817720174" type="unknown" color="51,128,255" fill="1" layer="-1.00" shape="952.919347,486.318026 971.068207,493.982689 968.665986,499.177413 963.560441,496.624670 961.648478,500.519168 948.968728,494.360018 952.919347,486.318026"/>
    <poly id="817720175" type="unknown" color="51,128,255" fill="1" layer="-1.00" shape="946.866784,483.973556 950.052601,477.050713 967.545453,485.392970 964.966200,491.504609 946.866784,483.973556"/>
    <poly id="817720176" type="unknown" color="51,128,255" fill="1" layer="-1.00" shape="967.545453,485.392970 973.777427,488.116563 971.068207,493.982689 964.966200,491.504609 967.545453,485.392970"/>
    <poly id="89763489" type="unknown" color="51,128,255" fill="0" layer="-1.00" shape="748.984354,840.507392 778.448436,775.986658 807.988105,715.576527 853.424625,618.469282 858.628082,608.174065 899.402383,526.642193 930.661118,461.393153"/>
    <poly id="89763498" type="unknown" color="51,128,255" fill="0" layer="-1.00" shape="822.331306,821.297368 824.077387,814.598067 824.337206,810.702589 823.973652,807.352230 823.198912,804.051495 821.500884,799.995664 819.366051,797.085725 778.448436,775.986658"/>
    <poly id="89905629" type="unknown" color="51,128,255" fill="0" layer="-1.00" shape="1308.408335,591.893142 1241.501804,523.476550 1203.227977,486.531137 1173.292209,454.354597 1132.998473,418.045337"/>
    <poly id="89905639" type="unknown" color="51,128,255" fill="0" layer="-1.00" shape="1077.515587,326.127162 1157.737350,366.163290 1214.653118,394.563372 1265.964038,420.170982 1354.445123,463.323321 1367.808065,469.801823"/>
    <poly id="960158827" type="unknown" color="51,128,255" fill="1" layer="-1.00" shape="1058.552533,599.541882 1050.338844,595.428121 1050.107236,592.179310 1056.428680,580.448596 1062.489417,583.679293 1060.529271,587.351587 1063.493601,589.652787 1058.552533,599.541882"/>
    <poi id="1040103730" type="unknown" color="51,128,255" layer="4.00" x="1018.50" y="445.38"/>
    <poi id="1040204895" type="unknown" color="51,128,255" layer="4.00" x="1129.56" y="550.27"/>
    <poi id="1040204911" type="unknown" color="51,128,255" layer="4.00" x="997.98" y="489.98"/>
    <poi id="1040247620" type="unknown" color="51,128,255" layer="4.00" x="879.31" y="379.67"/>
    <poi id="1040375471" type="unknown" color="51,128,255" layer="4.00" x="944.65" y="238.56"/>
    <poi id="1040375479" type="unknown" color="51,128,255" layer="4.00" x="1294.81" y="623.59"/>
    <poi id="1040375539" type="unknown" color="51,128,255" layer="4.00" x="1079.96" y="526.84"/>
    <poi id="1042064390" type="unknown" color="51,128,255" layer="4.00" x="1427.37" y="376.24"/>
    <poi id="1042064474" type="unknown" color="51,128,255" layer="4.00" x="1169.78" y="568.12"/>
    <poi id="1042064488" type="unknown" color="51,128,255" layer="4.00" x="1304.86" y="628.21"/>
    <poi id="1042064574" type="unknown" color="51,128,255" layer="4.00" x="1367.81" y="469.80"/>
    <poi id="1042064583" type="unknown" color="51,128,255" layer="4.00" x="1376.66" y="474.56"/>
    <poi id="1042064678" type="unknown" color="51,128,255" layer="4.00" x="1417.83" y="374.03"/>
    <poi id="1552561046" type="unknown" color="51,128,255" layer="4.00" x="1068.00" y="344.60"/>
    <poi id="1601642925" type="unknown" color="51,128,255" layer="4.00" x="950.65" y="668.80"/>
    <poi id="1603760118" type="unknown" color="51,128,255" layer="4.00" x="1060.96" y="382.40"/>
    <poi id="1603760144" type="unknown" color="51,128,255" layer="4.00" x="1095.09" y="315.05"/>
    <poi id="1603760170" type="unknown" color="51,128,255" layer="4.00" x="1065.90" y="292.64"/>
    <poi id="1603874315" type="unknown" color="51,128,255" layer="4.00" x="1103.58" y="300.51"/>
    <poi id="1603874389" type="unknown" color="51,128,255" layer="4.00" x="1035.95" y="518.10"/>
    <poi id="1603874447" type="unknown" color="51,128,255" layer="4.00" x="1045.47" y="522.44"/>
    <poi id="1603874570" type="unknown" color="51,128,255" layer="4.00" x="1067.29" y="565.09"/>
    <poi id="1603874627" type="unknown" color="51,128,255" layer="4.00" x="1016.83" y="702.59"/>
    <poi id="1603874688" type="unknown" color="51,128,255" layer="4.00" x="1045.56" y="692.00"/>
    <poi id="1607028929" type="unknown" color="51,128,255" layer="4.00" x="1053.88" y="713.95"/>
    <poi id="1609407375" type="unknown" color="51,128,255" layer="4.00" x="844.50" y="785.72"/>
    <poi id="1609407422" type="unknown" color="51,128,255" layer="4.00" x="873.38" y="763.25"/>
    <poi id="1609407430" type="unknown" color="51,128,255" layer="4.00" x="911.88" y="686.76"/>
    <poi id="1609407441" type="unknown" color="51,128,255" layer="4.00" x="907.80" y="697.11"/>
    <poi id="1609407451" type="unknown" color="51,128,255" layer="4.00" x="902.97" y="705.63"/>
    <poi id="1609407460" type="unknown" color="51,128,255" layer="4.00" x="882.81" y="743.34"/>
    <poi id="1628774506" type="unknown" color="51,128,255" layer="4.00" x="843.99" y="790.47"/>
    <poi id="1628774507" type="unknown" color="51,128,255" layer="4.00" x="996.49" y="443.44"/>
    <poi id="1642528424" type="unknown" color="51,128,255" layer="4.00" x="723.41" y="711.25"/>
    <poi id="1642528428" type="unknown" color="51,128,255" layer="4.00" x="799.58" y="745.38"/>
    <poi id="1642528429" type="unknown" color="51,128,255" layer="4.00" x="1011.83" y="711.53"/>
    <poi id="1642528430" type="unknown" color="51,128,255" layer="4.00" x="1011.86" y="698.94"/>
    <poi id="1642528431" type="unknown" color="51,128,255" layer="4.00" x="1025.79" y="669.62"/>
    <poi id="1642528432" type="unknown" color="51,128,255" layer="4.00" x="1057.58" y="609.61"/>
    <poi id="1642528433" type="unknown" color="51,128,255" layer="4.00" x="1003.73" y="703.66"/>
    <poi id="1642528434" type="unknown" color="51,128,255" layer="4.00" x="1057.51" y="583.86"/>
    <poi id="1642528436" type="unknown" color="51,128,255" layer="4.00" x="1052.40" y="615.95"/>
    <poi id="1642528441" type="unknown" color="51,128,255" layer="4.00" x="1078.15" y="499.58"/>
    <poi id="1642528442" type="unknown" color="51,128,255" layer="4.00" x="1079.28" y="496.93"/>
    <poi id="1642528443" type="unknown" color="51,128,255" layer="4.00" x="1075.40" y="504.27"/>
    <poi id="1642528444" type="unknown" color="51,128,255" layer="4.00" x="1051.82" y="473.52"/>
    <poi id="1642528445" type="unknown" color="51,128,255" layer="4.00" x="1190.03" y="442.46"/>
    <poi id="1642528447" type="unknown" color="51,128,255" layer="4.00" x="1217.33" y="403.33"/>
    <poi id="1642528448" type="unknown" color="51,128,255" layer="4.00" x="1175.31" y="362.44"/>
    <poi id="1642528449" type="unknown" color="51,128,255" layer="4.00" x="1096.36" y="343.01"/>
    <poi id="1642528450" type="unknown" color="51,128,255" layer="4.00" x="1107.45" y="348.07"/>
    <poi id="1642528451" type="unknown" color="51,128,255" layer="4.00" x="1125.48" y="342.17"/>
    <poi id="1642528452" type="unknown" color="51,128,255" layer="4.00" x="1061.92" y="328.46"/>
    <poi id="1642528453" type="unknown" color="51,128,255" layer="4.00" x="1051.20" y="349.19"/>
    <poi id="1642528454" type="unknown" color="51,128,255" layer="4.00" x="1056.78" y="328.38"/>
    <poi id="1642528455" type="unknown" color="51,128,255" layer="4.00" x="1046.72" y="312.47"/>
    <poi id="1642528474" type="unknown" color="51,128,255" layer="4.00" x="854.28" y="366.92"/>
    <poi id="1642528475" type="unknown" color="51,128,255" layer="4.00" x="937.46" y="474.55"/>
    <poi id="1642528476" type="unknown" color="51,128,255" layer="4.00" x="958.43" y="469.85"/>
    <poi id="1642528477" type="unknown" color="51,128,255" layer="4.00" x="979.84" y="477.94"/>
    <poi id="1642528479" type="unknown" color="51,128,255" layer="4.00" x="927.24" y="401.77"/>
    <poi id="1642528480" type="unknown" color="51,128,255" layer="4.00" x="940.13" y="441.39"/>
    <poi id="1642563293" type="unknown" color="51,128,255" layer="4.00" x="859.30" y="587.46"/>
    <poi id="1647176750" type="unknown" color="51,128,255" layer="4.00" x="1034.82" y="708.26"/>
    <poi id="1647263517" type="unknown" color="51,128,255" layer="4.00" x="934.55" y="257.73"/>
    <poi id="1647263518" type="unknown" color="51,128,255" layer="4.00" x="928.15" y="269.79"/>
    <poi id="1647263519" type="unknown" color="51,128,255" layer="4.00" x="925.32" y="275.69"/>
    <poi id="1647263534" type="unknown" color="51,128,255" layer="4.00" x="1066.62" y="348.15"/>
    <poi id="1658030993" type="unknown" color="51,128,255" layer="4.00" x="849.69" y="648.69"/>
    <poi id="1658031024" type="unknown" color="51,128,255" layer="4.00" x="1002.39" y="502.42"/>
    <poi id="1670799896" type="unknown" color="51,128,255" layer="4.00" x="1197.38" y="865.55"/>
    <poi id="1670800040" type="unknown" color="51,128,255" layer="4.00" x="1173.09" y="899.40"/>
    <poi id="1670800041" type="unknown" color="51,128,255" layer="4.00" x="1186.02" y="892.42"/>
    <poi id="1670800085" type="unknown" color="51,128,255" layer="4.00" x="1195.35" y="897.08"/>
    <poi id="1670800358" type="unknown" color="51,128,255" layer="4.00" x="938.49" y="797.06"/>
    <poi id="1670800521" type="unknown" color="51,128,255" layer="4.00" x="872.99" y="750.05"/>
    <poi id="1712160689" type="unknown" color="51,128,255" layer="4.00" x="1026.45" y="677.54"/>
    <poi id="1712160690" type="unknown" color="51,128,255" layer="4.00" x="1106.53" y="619.41"/>
    <poi id="1712160691" type="unknown" color="51,128,255" layer="4.00" x="1151.26" y="626.99"/>
    <poi id="1712160696" type="unknown" color="51,128,255" layer="4.00" x="1232.36" y="696.87"/>
    <poi id="1712160697" type="unknown" color="51,128,255" layer="4.00" x="1236.41" y="682.05"/>
    <poi id="1712160700" type="unknown" color="51,128,255" layer="4.00" x="1257.80" y="746.36"/>
    <poi id="1712160701" type="unknown" color="51,128,255" layer="4.00" x="1247.75" y="744.45"/>
    <poi id="1712160702" type="unknown" color="51,128,255" layer="4.00" x="1273.09" y="665.53"/>
    <poi id="1719982548" type="unknown" color="51,128,255" layer="4.00" x="938.67" y="600.13"/>
    <poi id="1719982550" type="unknown" color="51,128,255" layer="4.00" x="944.01" y="589.87"/>
    <poi id="1719982554" type="unknown" color="51,128,255" layer="4.00" x="942.15" y="593.05"/>
    <poi id="1719982559" type="unknown" color="51,128,255" layer="4.00" x="945.92" y="429.05"/>
    <poi id="1719982576" type="unknown" color="51,128,255" layer="4.00" x="923.28" y="457.94"/>
    <poi id="1719982578" type="unknown" color="51,128,255" layer="4.00" x="939.28" y="465.21"/>
    <poi id="1719982581" type="unknown" color="51,128,255" layer="4.00" x="948.38" y="411.87"/>
    <poi id="1719982587" type="unknown" color="51,128,255" layer="4.00" x="887.30" y="359.12"/>
    <poi id="1719982596" type="unknown" color="51,128,255" layer="4.00" x="711.78" y="531.59"/>
    <poi id="1719982620" type="unknown" color="51,128,255" layer="4.00" x="1052.37" y="452.08"/>
    <poi id="1719982622" type="unknown" color="51,128,255" layer="4.00" x="1077.24" y="462.80"/>
    <poi id="2822017936" type="unknown" color="51,128,255" layer="4.00" x="979.57" y="497.47"/>
    <poi id="32070447" type="unknown" color="51,128,255" layer="4.00" x="930.29" y="324.01"/>
    <poi id="3646837270" type="unknown" color="51,128,255" layer="4.00" x="825.05" y="820.15"/>
    <poi id="3936449870" type="unknown" color="51,128,255" layer="4.00" x="897.20" y="720.51"/>
    <poi id="3936466509" type="unknown" color="51,128,255" layer="4.00" x="839.43" y="829.11"/>
    <poi id="3950032293" type="unknown" color="51,128,255" layer="4.00" x="973.84" y="677.39"/>
    <poi id="4042200989" type="unknown" color="51,128,255" layer="4.00" x="1191.53" y="369.62"/>
    <poi id="4042200990" type="unknown" color="51,128,255" layer="4.00" x="1229.14" y="407.35"/>
    <poi id="4042200991" type="unknown" color="51,128,255" layer="4.00" x="1242.36" y="412.96"/>
    <poi id="4042200992" type="unknown" color="51,128,255" layer="4.00" x="1288.03" y="445.52"/>
    <poi id="4042222176" type="unknown" color="51,128,255" layer="4.00" x="1274.49" y="659.80"/>
    <poi id="4564015792" type="unknown" color="51,128,255" layer="4.00" x="838.07" y="367.86"/>
    <poi id="4566874107" type="unknown" color="51,128,255" layer="4.00" x="1012.60" y="754.87"/>
    <poi id="4566874117" type="unknown" color="51,128,255" layer="4.00" x="1005.68" y="657.58"/>
    <poi id="4566874118" type="unknown" color="51,128,255" layer="4.00" x="1021.27" y="728.30"/>
    <poi id="4566874120" type="unknown" color="51,128,255" layer="4.00" x="1008.53" y="762.81"/>
    <poi id="4566874121" type="unknown" color="51,128,255" layer="4.00" x="1002.26" y="776.89"/>
    <poi id="4566874122" type="unknown" color="51,128,255" layer="4.00" x="1000.05" y="786.01"/>
    <poi id="4566874123" type="unknown" color="51,128,255" layer="4.00" x="995.22" y="797.40"/>
    <poi id="4700459543" type="unknown" color="51,128,255" layer="4.00" x="1284.83" y="573.51"/>
    <poi id="4700459552" type="unknown" color="51,128,255" layer="4.00" x="1154.90" y="357.66"/>
    <poi id="4700459553" type="unknown" color="51,128,255" layer="4.00" x="1143.19" y="388.16"/>
    <poi id="4700459554" type="unknown" color="51,128,255" layer="4.00" x="1136.05" y="405.85"/>
    <poi id="4851808927" type="unknown" color="51,128,255" layer="4.00" x="1230.40" y="587.87"/>
    <poi id="4851810989" type="unknown" color="51,128,255" layer="4.00" x="1221.30" y="607.27"/>
    <poi id="4851812018" type="unknown" color="51,128,255" layer="4.00" x="1216.22" y="580.08"/>
    <poi id="5287223121" type="unknown" color="51,128,255" layer="4.00" x="1009.30" y="503.50"/>
    <poi id="5287223221" type="unknown" color="51,128,255" layer="4.00" x="992.85" y="479.73"/>
    <poi id="5287223322" type="unknown" color="51,128,255" layer="4.00" x="725.15" y="312.52"/>
    <poi id="5916647888" type="unknown" color="51,128,255" layer="4.00" x="1074.06" y="349.55"/>
    <poi id="6379754644" type="unknown" color="51,128,255" layer="4.00" x="779.66" y="456.42"/>
    <poi id="6415267585" type="unknown" color="51,128,255" layer="4.00" x="928.38" y="286.75"/>
    <poi id="6415268385" type="unknown" color="51,128,255" layer="4.00" x="957.93" y="377.52"/>
    <poi id="6415268485" type="unknown" color="51,128,255" layer="4.00" x="981.18" y="375.28"/>
    <poi id="6415268486" type="unknown" color="51,128,255" layer="4.00" x="992.24" y="316.17"/>
    <poi id="6415487486" type="unknown" color="51,128,255" layer="4.00" x="1090.27" y="519.83"/>
    <poi id="6415498587" type="unknown" color="51,128,255" layer="4.00" x="1040.73" y="589.79"/>
    <poi id="6462083785" type="unknown" color="51,128,255" layer="4.00" x="752.73" y="331.17"/>
    <poi id="6462083885" type="unknown" color="51,128,255" layer="4.00" x="846.91" y="367.86"/>
    <poi id="6462083985" type="unknown" color="51,128,255" layer="4.00" x="871.52" y="368.16"/>
    <poi id="6462084085" type="unknown" color="51,128,255" layer="4.00" x="953.56" y="480.12"/>
    <poi id="6462089686" type="unknown" color="51,128,255" layer="4.00" x="1282.02" y="631.57"/>
    <poi id="6581745586" type="unknown" color="51,128,255" layer="4.00" x="1181.34" y="450.07"/>
    <poi id="6581903585" type="unknown" color="51,128,255" layer="4.00" x="1232.00" y="420.60"/>
    <poi id="6581938685" type="unknown" color="51,128,255" layer="4.00" x="1251.49" y="300.74"/>
    <poi id="6582211285" type="unknown" color="51,128,255" layer="4.00" x="1190.03" y="437.26"/>