[General]
cmdenv-express-mode = true
cmdenv-autoflush = true
cmdenv-status-frequency = 1s
**.cmdenv-log-level = info

ned-path = .
image-path = ../../images

network = DefaultScenario

##########################################################
#            Simulation parameters                       #
##########################################################
debug-on-errors = true
print-undisposed = true

sim-time-limit = 10min

**.scalar-recording = true
**.vector-recording = true

*.playgroundSizeX = 800m
*.playgroundSizeY = 800m
*.playgroundSizeZ = 50m



##########################################################
#                 Annotation parameters                  #
##########################################################
*.annotations.draw = true


##########################################################
#                  Obstacle parameters                   #
##########################################################
#*.obstacles.debug = false
#*.obstacles.obstacles = xmldoc("config.xml", "//AnalogueModel[@type='SimpleObstacleShadowing']/obstacles")


##########################################################
#            TraCIScenarioManager parameters             #
##########################################################
*.manager.updateInterval = 1s
*.manager.host = "localhost"
*.manager.port = 9999
*.manager.autoShutdown = true
*.manager.launchConfig = xmldoc("default.launchd.xml")


##########################################################
#                      RSU SETTINGS                      #
##########################################################
*.rsu[*].applType = "TraCIApplicationRSU11p"
*.rsu[*].appl.headerLength = 80 bit
*.rsu[*].appl.sendBeacons = false
*.rsu[*].appl.dataOnSch = false
*.rsu[*].appl.beaconInterval = 1s
*.rsu[*].appl.beaconUserPriority = 7
*.rsu[*].appl.dataUserPriority = 5
*.rsu[*].nic.phy80211p.antennaOffsetZ = 0 m

*.rsu[0].mobility.x = 237
*.rsu[0].mobility.y = 177.49
*.rsu[0].mobility.z = 4

*.rsu[1].mobility.x = 290.37
*.rsu[1].mobility.y = 284.54
*.rsu[1].mobility.z = 3

*.rsu[2].mobility.x = 329.5
*.rsu[2].mobility.y = 365.78
*.rsu[2].mobility.z = 3

*.rsu[3].mobility.x = 361.98
*.rsu[3].mobility.y = 435.37
*.rsu[3].mobility.z = 3

*.rsu[4].mobility.x = 222.65
*.rsu[4].mobility.y = 318.73
*.rsu[4].mobility.z = 3

# Linha 2

*.rsu[5].mobility.x = 490.97
*.rsu[5].mobility.y = 201.38
*.rsu[5].mobility.z = 3

*.rsu[6].mobility.x = 443.48
*.rsu[6].mobility.y = 213
*.rsu[6].mobility.z = 3

*.rsu[7].mobility.x = 365.37
*.rsu[7].mobility.y = 245.53
*.rsu[7].mobility.z = 3

*.rsu[8].mobility.x = 377.85
*.rsu[8].mobility.y = 478.58
*.rsu[8].mobility.z = 3

*.rsu[9].mobility.x = 375.26
*.rsu[9].mobility.y = 484.32
*.rsu[9].mobility.z = 3


##########################################################
#               11p specific parameters                  #
#                    NIC-Settings                        #
##########################################################
*.connectionManager.sendDirect = true
*.connectionManager.maxInterfDist = 2600m
*.connectionManager.drawMaxIntfDist = false

*.**.nic.mac1609_4.useServiceChannel = false

*.**.nic.mac1609_4.txPower = 20mW
*.**.nic.mac1609_4.bitrate = 6Mbps
*.**.nic.phy80211p.minPowerLevel = -110dBm

*.**.nic.phy80211p.useNoiseFloor = true
*.**.nic.phy80211p.noiseFloor = -98dBm

*.**.nic.phy80211p.decider = xmldoc("config.xml")
*.**.nic.phy80211p.analogueModels = xmldoc("config.xml")
*.**.nic.phy80211p.usePropagationDelay = true

*.**.nic.phy80211p.antenna = xmldoc("antenna.xml", "/root/Antenna[@id='monopole']")
*.node[*].nic.phy80211p.antennaOffsetY = 0 m
*.node[*].nic.phy80211p.antennaOffsetZ = 1.895 m


##########################################################
#                      App Layer                         #
##########################################################
*.manager.moduleType = "v_emergency=org.car2x.veins.nodes.Car *=org.car2x.veins.nodes.Car"
*.manager.moduleName = "v_emergency=evNode *=node"

*.node[*].applType = "TraCIVehicle11p"
*.node[*].appl.headerLength = 80 bit
*.node[*].appl.sendBeacons = false
*.node[*].appl.dataOnSch = false
*.node[*].appl.beaconInterval = 1s

*.evNode[*].applType = "TraCIEmergencyVehicle11p"
*.evNode[*].appl.headerLength = 80 bit
*.evNode[*].appl.sendBeacons = false
*.evNode[*].appl.dataOnSch = false
*.evNode[*].appl.beaconInterval = 1s


##########################################################
#                      Mobility                          #
##########################################################
*.node[*].veinsmobility.x = 0
*.node[*].veinsmobility.y = 0
*.node[*].veinsmobility.z = 0
*.node[*].veinsmobility.setHostSpeed = false
#*.node[*0].veinsmobility.accidentCount = 1
#*.node[*0].veinsmobility.accidentStart = 75s
#*.node[*0].veinsmobility.accidentDuration = 50s

*.evNode[*].veinsmobility.x = 0
*.evNode[*].veinsmobility.y = 0
*.evNode[*].veinsmobility.z = 0
*.evNode[*].veinsmobility.setHostSpeed = false

##########################################################
#                 Simulation Parameters                  #
##########################################################

# ---------- Node
# 	bool a2t;					// Enable or disable A2T communications
# 	int broadcastInterval;		// [AMU] Interval between messages broadcast (in seconds)
# 	int maxHop;					// Maximum number of hops of a message
# 	int warningDistance;		// [A2V] Distance before which a vehicle will react when an ambulance approaches (in meters)
# 	double minForwardDistance;	// Minimum distance from which a vehicle is selected to forward the message (in meters)
# 	double laneChangeDuration;	// [A2V] Duration for which a vehicle changes lanes (in seconds)

# ---------- RSU
# 	int reinitializationDelay;	// Time after which the RSU resets if it has not been updated (in seconds)

#*.node[*].appl.a2t = true
#*.node[*].appl.broadcastInterval = 1
#*.node[*].appl.maxHop = 2
#*.node[*].appl.minForwardDistance = 100
#*.node[*].appl.warningDistance = 200
#*.node[*].appl.laneChangeDuration = 6

*.evNode[*].appl.a2t = true
*.evNode[*].appl.broadcastInterval = 2
*.evNode[*].appl.maxHop = 2
*.evNode[*].appl.minForwardDistance = 100
*.evNode[*].appl.warningDistance = 200
*.evNode[*].appl.laneChangeDuration = 6

*.rsu[*].appl.reinitializationDelay = 3
*.rsu[*].appl.tlDistance = 15

*.rsu[*].appl.associatedTl = ""

[Config WithControl]
#sim-time-limit = 5min
#repeat = 3

#[Config WithBeaconing]
#*.node[*].appl.sendBeacons = true
#
#[Config WithChannelSwitching]
#*.**.nic.mac1609_4.useServiceChannel = true
#*.node[*].appl.dataOnSch = true

[Config WithoutControl]
*.evNode[*].appl.a2t = false
#repeat = 3
